Version 4
SHEET 1 1896 696
WIRE 80 144 80 96
WIRE 304 144 80 144
WIRE 528 144 304 144
WIRE 752 144 528 144
WIRE 976 144 752 144
WIRE 1200 144 976 144
WIRE 1472 144 1200 144
WIRE 1648 144 1472 144
WIRE 1472 160 1472 144
WIRE 1504 160 1472 160
WIRE 1648 160 1648 144
WIRE 1680 160 1648 160
WIRE 176 192 -16 192
WIRE 400 192 208 192
WIRE 624 192 432 192
WIRE 848 192 656 192
WIRE 1072 192 880 192
WIRE 1296 192 1104 192
WIRE 80 208 80 144
WIRE 304 208 304 144
WIRE 528 208 528 144
WIRE 752 208 752 144
WIRE 976 208 976 144
WIRE 1200 208 1200 144
WIRE 1408 208 1392 208
WIRE 1504 208 1504 160
WIRE 1504 208 1472 208
WIRE 1584 208 1568 208
WIRE 1680 208 1680 160
WIRE 1680 208 1648 208
WIRE -16 256 -16 192
WIRE 0 256 -16 256
WIRE 192 256 160 256
WIRE 208 256 208 192
WIRE 224 256 208 256
WIRE 416 256 384 256
WIRE 432 256 432 192
WIRE 448 256 432 256
WIRE 640 256 608 256
WIRE 656 256 656 192
WIRE 672 256 656 256
WIRE 864 256 832 256
WIRE 880 256 880 192
WIRE 896 256 880 256
WIRE 1088 256 1056 256
WIRE 1104 256 1104 192
WIRE 1120 256 1104 256
WIRE 1312 256 1280 256
WIRE 1472 272 1472 256
WIRE 1568 272 1568 208
WIRE 1568 272 1472 272
WIRE 1648 272 1648 256
WIRE 1792 272 1648 272
WIRE 1472 288 1472 272
WIRE 1648 288 1648 272
WIRE 0 304 -64 304
WIRE 176 304 176 192
WIRE 176 304 160 304
WIRE 192 304 192 256
WIRE 224 304 192 304
WIRE 400 304 400 192
WIRE 400 304 384 304
WIRE 416 304 416 256
WIRE 448 304 416 304
WIRE 624 304 624 192
WIRE 624 304 608 304
WIRE 640 304 640 256
WIRE 672 304 640 304
WIRE 848 304 848 192
WIRE 848 304 832 304
WIRE 864 304 864 256
WIRE 896 304 864 304
WIRE 1072 304 1072 192
WIRE 1072 304 1056 304
WIRE 1088 304 1088 256
WIRE 1120 304 1088 304
WIRE 1296 304 1296 192
WIRE 1296 304 1280 304
WIRE 1312 304 1312 256
WIRE 1392 304 1392 208
WIRE 1392 304 1312 304
WIRE 1392 336 1392 304
WIRE 1408 336 1392 336
WIRE 1504 336 1472 336
WIRE 1568 336 1568 272
WIRE 1584 336 1568 336
WIRE 1680 336 1648 336
WIRE 1504 384 1504 336
WIRE 1504 384 1472 384
WIRE 1680 384 1680 336
WIRE 1680 384 1648 384
WIRE 80 400 80 352
WIRE 304 400 304 352
WIRE 304 400 80 400
WIRE 528 400 528 352
WIRE 528 400 304 400
WIRE 752 400 752 352
WIRE 752 400 528 400
WIRE 976 400 976 352
WIRE 976 400 752 400
WIRE 1200 400 1200 352
WIRE 1200 400 976 400
WIRE 1472 400 1472 384
WIRE 1472 400 1200 400
WIRE 1648 400 1648 384
WIRE 1648 400 1472 400
WIRE 80 448 80 400
FLAG 1792 272 out
IOPIN 1792 272 Out
FLAG -64 304 in
IOPIN -64 304 In
FLAG 80 448 gnd
IOPIN 80 448 In
FLAG 80 96 vdd
IOPIN 80 96 In
SYMBOL mydff 80 304 R0
SYMATTR InstName X1
SYMBOL mydff 304 304 R0
SYMATTR InstName X2
SYMBOL mydff 528 304 R0
SYMATTR InstName X3
SYMBOL mydff 752 304 R0
SYMATTR InstName X4
SYMBOL mydff 976 304 R0
SYMATTR InstName X5
SYMBOL mydff 1200 304 R0
SYMATTR InstName X6
SYMBOL nmos4 1408 336 R0
WINDOW 3 48 60 Left 2
SYMATTR InstName M5
SYMATTR Value nch
SYMATTR Value2 l=2u w=24u
SYMBOL pmos4 1408 208 R0
WINDOW 3 48 60 Left 2
SYMATTR InstName M6
SYMATTR Value pch
SYMATTR Value2 l=2u w=48u
SYMBOL pmos4 1584 208 R0
WINDOW 3 48 60 Left 2
SYMATTR InstName M7
SYMATTR Value pch
SYMATTR Value2 l=2u w=192u
SYMBOL nmos4 1584 336 R0
WINDOW 3 48 60 Left 2
SYMATTR InstName M8
SYMATTR Value nch
SYMATTR Value2 l=2u w=96u
TEXT 104 680 Left 2 !.include "./models/mos_tt.lib"\n
