Version 4
SHEET 1 984 1020
WIRE 384 -112 384 -160
WIRE 464 -112 384 -112
WIRE 672 -112 464 -112
WIRE 336 -16 208 -16
WIRE 384 -16 384 -112
WIRE 336 16 192 16
WIRE 560 32 448 32
WIRE 336 48 192 48
WIRE 336 80 224 80
WIRE 672 160 672 -112
WIRE 560 176 560 32
WIRE 624 176 560 176
WIRE 384 192 384 80
WIRE 512 192 384 192
WIRE 800 192 720 192
WIRE 624 208 560 208
WIRE 464 272 464 -112
WIRE 464 272 384 272
WIRE 336 288 208 288
WIRE 384 288 384 272
WIRE 336 320 224 320
WIRE 448 336 432 336
WIRE 560 336 560 208
WIRE 560 336 448 336
WIRE 336 352 208 352
WIRE 336 384 224 384
WIRE 384 464 384 384
WIRE 512 464 512 192
WIRE 512 464 384 464
WIRE 672 464 672 224
WIRE 672 464 512 464
WIRE 384 496 384 464
FLAG 208 -16 A
IOPIN 208 -16 In
FLAG 192 16 B
IOPIN 192 16 In
FLAG 192 48 C
IOPIN 192 48 In
FLAG 224 80 D
IOPIN 224 80 In
FLAG 208 288 E
IOPIN 208 288 In
FLAG 224 320 F
IOPIN 224 320 In
FLAG 208 352 G
IOPIN 208 352 In
FLAG 224 384 H
IOPIN 224 384 In
FLAG 384 496 gnd
IOPIN 384 496 In
FLAG 384 -160 vdd
IOPIN 384 -160 In
FLAG 800 192 out
IOPIN 800 192 Out
SYMBOL mynor2 672 224 R0
SYMATTR InstName X8
SYMBOL mynand4 384 64 R0
SYMATTR InstName X5
SYMBOL mynand4 384 368 R0
SYMATTR InstName X15
