Version 4
SHEET 1 1080 680
WIRE 80 -224 0 -224
WIRE 288 -224 80 -224
WIRE 736 -224 288 -224
WIRE 560 -192 272 -192
WIRE 80 -128 80 -224
WIRE 96 -128 80 -128
WIRE 272 -128 272 -192
WIRE 272 -128 224 -128
WIRE 288 -128 288 -224
WIRE 304 -128 288 -128
WIRE 544 -128 432 -128
WIRE 96 -96 -240 -96
WIRE 304 -96 288 -96
WIRE 288 -64 288 -96
WIRE 288 -64 -32 -64
WIRE 528 -32 240 -32
WIRE 80 32 80 -128
WIRE 80 32 -448 32
WIRE 96 32 80 32
WIRE 240 32 240 -32
WIRE 240 32 224 32
WIRE 304 48 240 48
WIRE 480 48 432 48
WIRE 96 64 -224 64
WIRE 304 80 256 80
WIRE 80 96 80 32
WIRE 224 96 80 96
WIRE 240 96 240 48
WIRE 240 96 224 96
WIRE -448 112 -448 32
WIRE -432 112 -448 112
WIRE -320 112 -336 112
WIRE -272 112 -320 112
WIRE 592 112 512 112
WIRE 736 112 736 -224
WIRE 736 112 720 112
WIRE 800 112 736 112
WIRE -320 144 -336 144
WIRE -288 144 -320 144
WIRE 592 144 448 144
WIRE -320 176 -336 176
WIRE -304 176 -320 176
WIRE -80 176 -192 176
WIRE 80 176 80 96
WIRE 80 176 -80 176
WIRE 224 176 224 96
WIRE 288 176 224 176
WIRE 432 176 416 176
WIRE 592 176 464 176
WIRE 800 192 800 112
WIRE 816 192 800 192
WIRE -320 208 -336 208
WIRE 288 208 -112 208
WIRE 432 208 432 176
WIRE 592 208 432 208
WIRE -432 224 -480 224
WIRE 256 224 256 80
WIRE 256 224 -208 224
WIRE 816 224 720 224
WIRE 976 224 944 224
WIRE -256 240 -336 240
WIRE -224 240 -224 64
WIRE -224 240 -256 240
WIRE 464 240 464 176
WIRE 464 240 -16 240
WIRE 528 240 528 -32
WIRE 592 240 528 240
WIRE -432 256 -480 256
WIRE 816 256 800 256
WIRE -256 272 -336 272
WIRE -112 272 -112 208
WIRE -112 272 -256 272
WIRE -80 272 -80 176
WIRE 32 272 -80 272
WIRE 448 272 448 144
WIRE 448 272 192 272
WIRE 560 272 560 -192
WIRE 592 272 560 272
WIRE -432 288 -480 288
WIRE -240 304 -240 -96
WIRE -240 304 -336 304
WIRE 544 304 544 -128
WIRE 592 304 544 304
WIRE 800 320 800 256
WIRE -432 336 -448 336
WIRE -256 336 -336 336
WIRE -208 336 -208 224
WIRE -208 336 -256 336
WIRE -192 336 -192 176
WIRE -176 336 -192 336
WIRE 32 336 32 272
WIRE 48 336 32 336
WIRE 224 336 224 176
WIRE 272 336 224 336
WIRE 480 336 480 48
WIRE 592 336 480 336
WIRE 736 336 720 336
WIRE -16 352 -16 240
WIRE -16 352 -48 352
WIRE 192 352 192 272
WIRE 192 352 176 352
WIRE 512 352 512 112
WIRE 512 352 400 352
WIRE -272 368 -272 112
WIRE -176 368 -272 368
WIRE 48 368 32 368
WIRE 272 368 256 368
WIRE -448 384 -448 336
WIRE 736 384 736 336
WIRE -288 400 -288 144
WIRE 32 400 32 368
WIRE 32 400 -288 400
WIRE -304 416 -304 176
WIRE 256 416 256 368
WIRE 256 416 -304 416
WIRE -320 432 -320 208
WIRE -32 432 -32 -64
WIRE -32 432 -320 432
FLAG 0 -224 vdd
IOPIN 0 -224 In
FLAG 976 224 out
IOPIN 976 224 Out
FLAG -448 384 GND
FLAG 736 384 GND
FLAG 800 320 GND
FLAG -480 224 x
IOPIN -480 224 In
FLAG -480 256 y
IOPIN -480 256 In
FLAG -480 288 z
IOPIN -480 288 In
FLAG -320 112 A
FLAG -320 144 B
FLAG -320 176 C
FLAG -320 208 D
FLAG -256 240 E
FLAG -256 272 F
FLAG -224 304 G
FLAG -256 336 H
SYMBOL 8-1seldec -384 224 R0
SYMATTR InstName X1
SYMBOL 8-1selor 656 224 R0
WINDOW 0 -1 -134 Bottom 2
SYMATTR InstName X2
SYMBOL 64div 880 224 R0
SYMATTR InstName X3
SYMBOL ring24 336 352 R0
SYMATTR InstName X4
SYMBOL ring8 -112 352 R0
SYMATTR InstName X5
SYMBOL ring16 112 352 R0
SYMATTR InstName X6
SYMBOL ring7_L2W14p22 368 -128 R0
SYMATTR InstName X7
SYMBOL ring7_L4 160 32 R0
SYMATTR InstName X8
SYMBOL ring7_psw 160 -128 R0
SYMATTR InstName X9
SYMBOL ring7_nand 368 48 R0
SYMATTR InstName X11
SYMBOL ring7_nor 352 176 R0
SYMATTR InstName X10
