Version 4
SHEET 1 880 680
WIRE 128 -32 -240 -32
WIRE -368 16 -496 16
WIRE -128 16 -368 16
WIRE 96 16 -128 16
WIRE 320 16 96 16
WIRE 448 16 320 16
WIRE -368 64 -368 16
WIRE -128 64 -128 16
WIRE 96 64 96 16
WIRE 320 64 320 16
WIRE -448 96 -496 96
WIRE -208 96 -304 96
WIRE 16 96 -64 96
WIRE 240 96 160 96
WIRE 416 96 384 96
WIRE -448 128 -512 128
WIRE -240 128 -240 -32
WIRE -240 128 -304 128
WIRE -448 160 -464 160
WIRE -208 160 -304 160
WIRE 16 160 -64 160
WIRE 240 160 160 160
WIRE 432 160 384 160
WIRE -464 208 -464 160
WIRE 416 208 416 96
WIRE 416 208 -464 208
WIRE -496 240 -496 96
WIRE 432 240 432 160
WIRE 432 240 -496 240
WIRE -368 272 -368 176
WIRE -128 272 -128 192
WIRE -128 272 -368 272
WIRE 96 272 96 192
WIRE 96 272 -128 272
WIRE 320 272 320 192
WIRE 320 272 96 272
WIRE 448 272 448 16
WIRE 448 272 320 272
WIRE 0 0 0 0
FLAG 128 -32 out
IOPIN 128 -32 Out
FLAG -496 16 vcc
IOPIN -496 16 In
FLAG -512 128 sw
IOPIN -512 128 In
SYMBOL UNIT -144 128 R0
SYMATTR InstName X4
SYMBOL UNIT_nand -384 128 R0
SYMATTR InstName X1
SYMBOL UNIT 80 128 R0
SYMATTR InstName X2
SYMBOL UNIT 304 128 R0
SYMATTR InstName X3
