Version 4
SHEET 1 880 680
WIRE 128 -32 -240 -32
WIRE -368 16 -496 16
WIRE 16 16 -368 16
WIRE 176 16 16 16
WIRE -368 64 -368 16
WIRE 16 64 16 16
WIRE -448 96 -496 96
WIRE -64 96 -304 96
WIRE 128 96 80 96
WIRE -448 128 -512 128
WIRE -240 128 -240 -32
WIRE -240 128 -304 128
WIRE -448 160 -464 160
WIRE -64 160 -304 160
WIRE 96 160 80 160
WIRE -464 208 -464 160
WIRE 128 208 128 96
WIRE 128 208 -464 208
WIRE -496 240 -496 96
WIRE 96 240 96 160
WIRE 96 240 -496 240
WIRE -368 304 -368 176
WIRE 16 304 16 192
WIRE 16 304 -368 304
WIRE 176 304 176 16
WIRE 176 304 16 304
FLAG 128 -32 out
IOPIN 128 -32 Out
FLAG -496 16 vcc
IOPIN -496 16 In
FLAG -512 128 sw
IOPIN -512 128 In
SYMBOL UNIT 0 128 R0
SYMATTR InstName X4
SYMBOL UNIT_nand -384 128 R0
SYMATTR InstName X1
