Version 4
SHEET 1 880 680
WIRE 176 176 64 176
WIRE 128 208 0 208
WIRE 224 208 128 208
WIRE 320 208 224 208
WIRE 416 208 320 208
WIRE 512 208 416 208
WIRE 544 208 512 208
WIRE 0 224 0 208
WIRE 128 224 128 208
WIRE 224 224 224 208
WIRE 320 224 320 208
WIRE 416 224 416 208
WIRE -48 240 -112 240
WIRE -32 240 -48 240
WIRE 64 240 64 176
WIRE 64 240 32 240
WIRE 96 240 80 240
WIRE 176 240 176 176
WIRE 192 240 176 240
WIRE 288 240 272 240
WIRE 384 240 368 240
WIRE 480 240 464 240
WIRE 112 264 112 256
WIRE 0 272 0 256
WIRE 128 272 128 256
WIRE 128 272 0 272
WIRE 224 272 224 256
WIRE 224 272 128 272
WIRE 320 272 320 256
WIRE 320 272 224 272
WIRE 416 272 416 256
WIRE 416 272 320 272
WIRE 496 272 416 272
WIRE 480 288 480 240
WIRE 480 288 176 288
WIRE 80 336 80 240
WIRE 480 336 80 336
WIRE 320 352 224 352
WIRE 416 352 320 352
WIRE 512 352 512 208
WIRE 512 352 416 352
WIRE 224 368 224 352
WIRE 320 368 320 352
WIRE 416 368 416 352
WIRE 176 384 176 288
WIRE 192 384 176 384
WIRE 288 384 272 384
WIRE 384 384 368 384
WIRE 480 384 480 336
WIRE 480 384 464 384
WIRE 112 416 112 264
WIRE 112 416 -16 416
WIRE 224 416 224 400
WIRE 320 416 320 400
WIRE 320 416 224 416
WIRE 416 416 416 400
WIRE 416 416 320 416
WIRE 496 416 496 272
WIRE 496 416 416 416
WIRE 496 432 496 416
WIRE 0 0 0 0
FLAG 496 432 GND
FLAG 544 208 vcc
IOPIN 544 208 In
FLAG -112 240 out
IOPIN -112 240 Out
FLAG -16 416 sw
IOPIN -16 416 In
SYMBOL myinv 224 256 R0
SYMATTR InstName X2
SYMBOL myinv 320 256 R0
SYMATTR InstName X3
SYMBOL myinv 416 256 R0
SYMATTR InstName X4
SYMBOL myinv 224 400 R0
SYMATTR InstName X6
SYMBOL myinv 320 400 R0
SYMATTR InstName X7
SYMBOL myinv 416 400 R0
SYMATTR InstName X8
SYMBOL myinv_tg 128 256 R0
SYMATTR InstName X1
SYMBOL myinv 0 256 M0
SYMATTR InstName X5
