Version 4
SHEET 1 920 680
WIRE 624 144 208 144
WIRE 272 208 128 208
WIRE 368 208 272 208
WIRE 464 208 368 208
WIRE 560 208 464 208
WIRE 704 208 560 208
WIRE 784 208 704 208
WIRE 80 224 -32 224
WIRE 128 224 128 208
WIRE 272 224 272 208
WIRE 368 224 368 208
WIRE 464 224 464 208
WIRE 208 240 208 144
WIRE 208 240 176 240
WIRE 240 240 208 240
WIRE 336 240 320 240
WIRE 432 240 416 240
WIRE 528 240 512 240
WIRE 80 256 80 240
WIRE 80 256 64 256
WIRE 128 272 128 256
WIRE 272 272 272 256
WIRE 272 272 128 272
WIRE 368 272 368 256
WIRE 368 272 272 272
WIRE 464 272 464 256
WIRE 464 272 368 272
WIRE 544 272 464 272
WIRE 528 288 528 240
WIRE 528 288 224 288
WIRE 704 288 704 208
WIRE 624 304 624 144
WIRE 672 304 624 304
WIRE 816 304 752 304
WIRE 64 336 64 256
WIRE 528 336 64 336
WIRE 368 352 272 352
WIRE 464 352 368 352
WIRE 560 352 560 208
WIRE 560 352 464 352
WIRE 272 368 272 352
WIRE 368 368 368 352
WIRE 464 368 464 352
WIRE 224 384 224 288
WIRE 240 384 224 384
WIRE 336 384 320 384
WIRE 432 384 416 384
WIRE 528 384 528 336
WIRE 528 384 512 384
WIRE 272 416 272 400
WIRE 368 416 368 400
WIRE 368 416 272 416
WIRE 464 416 464 400
WIRE 464 416 368 416
WIRE 544 416 544 272
WIRE 544 416 464 416
WIRE 704 416 704 320
WIRE 704 416 544 416
WIRE 544 432 544 416
WIRE 0 0 0 0
FLAG 544 432 GND
FLAG 784 208 vcc
IOPIN 784 208 In
FLAG 816 304 out
IOPIN 816 304 Out
FLAG -32 224 sw
IOPIN -32 224 In
SYMBOL myinv 272 256 R0
SYMATTR InstName X2
SYMBOL myinv 368 256 R0
SYMATTR InstName X3
SYMBOL myinv 464 256 R0
SYMATTR InstName X4
SYMBOL myinv 272 400 R0
SYMATTR InstName X6
SYMBOL myinv 368 400 R0
SYMATTR InstName X7
SYMBOL myinv 464 400 R0
SYMATTR InstName X8
SYMBOL mynor2 128 272 R0
SYMATTR InstName X1
SYMBOL myinv 704 320 R0
SYMATTR InstName X5
