Version 4
SHEET 1 948 680
WIRE 128 -32 -240 -32
WIRE -368 16 -496 16
WIRE -128 16 -368 16
WIRE 96 16 -128 16
WIRE 320 16 96 16
WIRE 576 16 320 16
WIRE 800 16 576 16
WIRE 928 16 800 16
WIRE -368 64 -368 16
WIRE -128 64 -128 16
WIRE 96 64 96 16
WIRE 320 64 320 16
WIRE 576 64 576 16
WIRE 800 64 800 16
WIRE -448 96 -496 96
WIRE -208 96 -304 96
WIRE 16 96 -64 96
WIRE 240 96 160 96
WIRE 384 96 368 96
WIRE 496 96 384 96
WIRE 720 96 640 96
WIRE 912 96 864 96
WIRE -448 128 -512 128
WIRE -240 128 -240 -32
WIRE -240 128 -304 128
WIRE -448 160 -464 160
WIRE -208 160 -304 160
WIRE 16 160 -64 160
WIRE 240 160 160 160
WIRE 496 160 384 160
WIRE 720 160 640 160
WIRE 896 160 864 160
WIRE -464 208 -464 160
WIRE 912 208 912 96
WIRE 912 208 -464 208
WIRE -496 240 -496 96
WIRE 896 240 896 160
WIRE 896 240 -496 240
WIRE -368 304 -368 176
WIRE -128 304 -128 192
WIRE -128 304 -368 304
WIRE 96 304 96 192
WIRE 96 304 -128 304
WIRE 320 304 320 192
WIRE 320 304 96 304
WIRE 576 304 576 192
WIRE 576 304 320 304
WIRE 800 304 800 192
WIRE 800 304 576 304
WIRE 928 304 928 16
WIRE 928 304 800 304
FLAG 128 -32 out
IOPIN 128 -32 Out
FLAG -496 16 vcc
IOPIN -496 16 In
FLAG -512 128 sw
IOPIN -512 128 In
SYMBOL UNIT -144 128 R0
SYMATTR InstName X4
SYMBOL UNIT_nand -384 128 R0
SYMATTR InstName X1
SYMBOL UNIT 80 128 R0
SYMATTR InstName X2
SYMBOL UNIT 304 128 R0
SYMATTR InstName X3
SYMBOL UNIT 560 128 R0
SYMATTR InstName X5
SYMBOL UNIT 784 128 R0
SYMATTR InstName X6
