Version 4
SHEET 1 880 680
WIRE 176 176 32 176
WIRE 128 208 -32 208
WIRE 224 208 128 208
WIRE 320 208 224 208
WIRE 416 208 320 208
WIRE 512 208 512 128
WIRE 512 208 416 208
WIRE -32 224 -32 208
WIRE 128 224 128 208
WIRE 224 224 224 208
WIRE 320 224 320 208
WIRE 416 224 416 208
WIRE -80 240 -192 240
WIRE 32 240 32 176
WIRE 32 240 0 240
WIRE 96 240 80 240
WIRE 176 240 176 176
WIRE 192 240 176 240
WIRE 288 240 272 240
WIRE 384 240 368 240
WIRE 480 240 464 240
WIRE 112 264 112 256
WIRE 128 272 128 256
WIRE 224 272 224 256
WIRE 224 272 128 272
WIRE 320 272 320 256
WIRE 320 272 224 272
WIRE 416 272 416 256
WIRE 416 272 320 272
WIRE 496 272 416 272
WIRE 480 288 480 240
WIRE 480 288 176 288
WIRE 80 336 80 240
WIRE 480 336 80 336
WIRE 320 352 224 352
WIRE 416 352 320 352
WIRE 512 352 512 208
WIRE 512 352 416 352
WIRE 112 368 112 264
WIRE 112 368 -176 368
WIRE 224 368 224 352
WIRE 320 368 320 352
WIRE 416 368 416 352
WIRE 176 384 176 288
WIRE 192 384 176 384
WIRE 288 384 272 384
WIRE 384 384 368 384
WIRE 480 384 480 336
WIRE 480 384 464 384
WIRE -32 416 -32 256
WIRE 224 416 224 400
WIRE 224 416 -32 416
WIRE 320 416 320 400
WIRE 320 416 224 416
WIRE 416 416 416 400
WIRE 416 416 320 416
WIRE 496 416 496 272
WIRE 496 416 416 416
WIRE 496 432 496 416
WIRE 0 0 0 0
FLAG 496 432 GND
FLAG 512 128 vcc
IOPIN 512 128 In
FLAG -192 240 out
IOPIN -192 240 Out
FLAG -176 368 sw
IOPIN -176 368 In
SYMBOL myinv_L2W14p22 224 256 R0
SYMATTR InstName X2
SYMBOL myinv_L2W14p22 320 256 R0
SYMATTR InstName X3
SYMBOL myinv_L2W14p22 416 256 R0
SYMATTR InstName X4
SYMBOL myinv_L2W14p22 224 400 R0
SYMATTR InstName X6
SYMBOL myinv_L2W14p22 320 400 R0
SYMATTR InstName X7
SYMBOL myinv_L2W14p22 416 400 R0
SYMATTR InstName X8
SYMBOL myinv_L2W14p22_psw 128 256 R0
SYMATTR InstName X1
SYMBOL myinv_L2W14p22 -32 256 M0
SYMATTR InstName X5
