Version 4
SHEET 1 2512 992
WIRE -1488 -992 -1600 -992
WIRE -1936 -880 -2400 -880
WIRE -1904 -880 -1936 -880
WIRE -1792 -880 -1904 -880
WIRE -1760 -880 -1792 -880
WIRE -1264 -880 -1760 -880
WIRE -864 -880 -1264 -880
WIRE -1264 -848 -1264 -880
WIRE -2000 -832 -2016 -832
WIRE -1904 -832 -1904 -880
WIRE -1904 -832 -1936 -832
WIRE -1856 -832 -1872 -832
WIRE -1760 -832 -1760 -880
WIRE -1760 -832 -1792 -832
WIRE -864 -832 -864 -880
WIRE -1328 -784 -1360 -784
WIRE -1120 -784 -1184 -784
WIRE -1936 -768 -1936 -784
WIRE -1792 -768 -1792 -784
WIRE -1792 -768 -1936 -768
WIRE -1600 -768 -1600 -992
WIRE -1600 -768 -1792 -768
WIRE -1120 -768 -1120 -784
WIRE -1120 -768 -1600 -768
WIRE -944 -768 -1120 -768
WIRE -736 -768 -800 -768
WIRE -2016 -720 -2016 -832
WIRE -2016 -720 -2384 -720
WIRE -2000 -720 -2016 -720
WIRE -1904 -720 -1936 -720
WIRE -2144 -688 -2192 -688
WIRE -2064 -688 -2144 -688
WIRE -1872 -656 -1872 -832
WIRE -1872 -656 -2016 -656
WIRE -1520 -656 -1824 -656
WIRE -1264 -656 -1264 -720
WIRE -1264 -656 -1520 -656
WIRE -1232 -656 -1264 -656
WIRE -1040 -656 -1232 -656
WIRE -864 -656 -864 -704
WIRE -864 -656 -1040 -656
WIRE -2144 -640 -2144 -688
WIRE -2144 -640 -2192 -640
WIRE -1936 -640 -1936 -672
WIRE -1232 -608 -1232 -656
WIRE -1040 -608 -1040 -656
WIRE -2256 -592 -2256 -640
WIRE -2256 -592 -2384 -592
WIRE -2016 -592 -2016 -656
WIRE -2016 -592 -2192 -592
WIRE -2000 -592 -2016 -592
WIRE -1904 -592 -1904 -720
WIRE -1904 -592 -1936 -592
WIRE -2192 -576 -2192 -592
WIRE -1520 -576 -1520 -656
WIRE -864 -576 -864 -656
WIRE -1360 -544 -1360 -784
WIRE -1312 -544 -1360 -544
WIRE -1120 -544 -1120 -768
WIRE -1120 -544 -1168 -544
WIRE -2256 -528 -2256 -592
WIRE -2160 -528 -2192 -528
WIRE -1600 -512 -1632 -512
WIRE -1360 -512 -1360 -544
WIRE -1360 -512 -1456 -512
WIRE -944 -512 -1360 -512
WIRE -640 -512 -800 -512
WIRE -2064 -496 -2064 -688
WIRE -1936 -496 -1936 -544
WIRE -1936 -496 -2064 -496
WIRE -1904 -496 -1904 -592
WIRE -1904 -496 -1936 -496
WIRE -1824 -496 -1824 -656
WIRE -1824 -496 -1904 -496
WIRE -2160 -480 -2160 -528
WIRE -2160 -480 -2192 -480
WIRE -2160 -400 -2160 -480
WIRE -2160 -400 -2320 -400
WIRE -1520 -400 -1520 -448
WIRE -1520 -400 -2160 -400
WIRE -1232 -400 -1232 -480
WIRE -1232 -400 -1520 -400
WIRE -864 -400 -864 -448
WIRE -864 -400 -1232 -400
FLAG -2400 -880 Vcc1
IOPIN -2400 -880 In
FLAG -2384 -720 in1
IOPIN -2384 -720 In
FLAG -736 -768 out1
IOPIN -736 -768 Out
FLAG -1632 -512 in2
IOPIN -1632 -512 In
FLAG -640 -512 out2
IOPIN -640 -512 Out
FLAG -1040 -608 GND
FLAG -2384 -592 sw
IOPIN -2384 -592 In
FLAG -1488 -992 ringout
IOPIN -1488 -992 Out
FLAG -2320 -400 Vcc2
IOPIN -2320 -400 In
SYMBOL inverter -880 -512 M180
SYMATTR InstName X6
SYMBOL inverter -880 -768 R0
SYMATTR InstName X12
SYMBOL inverter -1536 -512 M180
SYMATTR InstName X17
SYMBOL inverter -1248 -784 M0
SYMATTR InstName X10
SYMBOL inverter -1248 -544 M180
SYMATTR InstName X19
SYMBOL pmos4 -1856 -832 R0
WINDOW 3 48 60 Left 2
SYMATTR InstName M1
SYMATTR Value pch
SYMATTR Value2 l=2u w=18u
SYMBOL pmos4 -2000 -832 R0
WINDOW 3 48 60 Left 2
SYMATTR InstName M2
SYMATTR Value pch
SYMATTR Value2 l=2u w=18u
SYMBOL nmos4 -2000 -720 R0
WINDOW 3 48 60 Left 2
SYMATTR InstName M4
SYMATTR Value nch
SYMATTR Value2 l=2u w=6u
SYMBOL nmos4 -2000 -592 R0
WINDOW 3 48 60 Left 2
SYMATTR InstName M5
SYMATTR Value nch
SYMATTR Value2 l=2u w=6u
SYMBOL pmos4 -2256 -528 M180
WINDOW 3 48 60 Left 2
SYMATTR InstName M3
SYMATTR Value pch
SYMATTR Value2 l=2u w=18u
SYMBOL nmos4 -2256 -640 M180
WINDOW 3 48 60 Left 2
SYMATTR InstName M6
SYMATTR Value nch
SYMATTR Value2 l=2u w=6u
